VXG.pdb
 OpenBabel08042511083D

 17 18  0  0  1  0  0  0  0  0999 V2000
  -30.3600   13.4700  -21.2670 N   0  0  0  0  0  0  0  0  0  0  0  0
  -29.4280   16.8040  -22.7010 C   0  0  0  0  0  0  0  0  0  0  0  0
  -29.9420   18.0950  -22.6390 C   0  0  0  0  0  0  0  0  0  0  0  0
  -29.2740   19.1570  -23.2200 C   0  0  0  0  0  0  0  0  0  0  0  0
  -28.0750   18.9450  -23.8630 C   0  0  0  0  0  0  0  0  0  0  0  0
  -27.5460   17.6760  -23.9350 C   0  0  0  0  0  0  0  0  0  0  0  0
  -29.3460   14.5170  -21.4740 C   0  0  0  0  0  0  0  0  0  0  0  0
  -31.5270   13.6950  -22.1410 C   0  0  0  0  0  0  0  0  0  0  0  0
  -32.3010   16.1250  -24.6310 O   0  0  0  0  0  0  0  0  0  0  0  0
  -32.2750   15.7540  -23.4700 C   0  0  0  0  0  0  0  0  0  0  0  0
  -31.1150   14.8860  -23.0050 C   0  0  1  0  0  0  0  0  0  0  0  0
  -30.1790   15.6540  -22.0690 C   0  0  2  0  0  0  0  0  0  0  0  0
  -28.2220   16.6080  -23.3630 C   0  0  0  0  0  0  0  0  0  0  0  0
  -30.2050   12.4460  -20.3980 C   0  0  0  0  0  0  0  0  0  0  0  0
  -31.2600   11.3830  -20.3580 C   0  0  0  0  0  0  0  0  0  0  0  0
  -29.2210   12.3940  -19.6680 O   0  0  0  0  0  0  0  0  0  0  0  0
  -33.0970   16.0610  -22.6520 O   0  5  0  0  0  0  0  0  0  0  0  0
  1  7  1  0  0  0  0
  1  8  1  0  0  0  0
  1 14  1  0  0  0  0
  2  3  2  0  0  0  0
  2 13  1  0  0  0  0
  3  4  1  0  0  0  0
  4  5  2  0  0  0  0
  5  6  1  0  0  0  0
  6 13  2  0  0  0  0
  7 12  1  0  0  0  0
  8 11  1  0  0  0  0
  9 10  2  0  0  0  0
 10 17  1  0  0  0  0
 11 10  1  1  0  0  0
 11 12  1  0  0  0  0
 12  2  1  6  0  0  0
 14 15  1  0  0  0  0
 14 16  2  0  0  0  0
M  CHG  1  17  -1
M  END
>  <HEADER>
    VIRAL PROTEIN                           16-SEP-20   5RMM

>  <TITLE>
    MDANALYSIS FRAME 0: Created by PDBWriter

>  <COMPND>
    MOL_ID: 1;
    2 MOLECULE: HELICASE;
    3 CHAIN: A, B;
    4 SYNONYM: HEL, NON-STRUCTURAL PROTEIN 13, NSP13;
    5 EC: 3.6.4.12,3.6.4.13;
    6 ENGINEERED: YES

>  <REMARK>
     2
     2 RESOLUTION.    2.20 ANGSTROMS.
     3
     3 REFINEMENT.
     3   PROGRAM     : REFMAC 5.8.0267
     3   AUTHORS     : MURSHUDOV,SKUBAK,LEBEDEV,PANNU,STEINER,
     3               : NICHOLLS,WINN,LONG,VAGIN
     3
     3    REFINEMENT TARGET : MAXIMUM LIKELIHOOD
     3
     3  DATA USED IN REFINEMENT.
     3   RESOLUTION RANGE HIGH (ANGSTROMS) : 2.20
     3   RESOLUTION RANGE LOW  (ANGSTROMS) : 81.56
     3   DATA CUTOFF            (SIGMA(F)) : 0.000
     3   COMPLETENESS FOR RANGE        (%) : 97.2
     3   NUMBER OF REFLECTIONS             : 56711
     3
     3  FIT TO DATA USED IN REFINEMENT.
     3   CROSS-VALIDATION METHOD          : THROUGHOUT
     3   FREE R VALUE TEST SET SELECTION  : RANDOM
     3   R VALUE     (WORKING + TEST SET) : 0.216
     3   R VALUE            (WORKING SET) : 0.212
     3   FREE R VALUE                     : 0.281
     3   FREE R VALUE TEST SET SIZE   (%) : 5.200
     3   FREE R VALUE TEST SET COUNT      : 3098
     3
     3  FIT IN THE HIGHEST RESOLUTION BIN.
     3   TOTAL NUMBER OF BINS USED           : 20
     3   BIN RESOLUTION RANGE HIGH       (A) : 2.20
     3   BIN RESOLUTION RANGE LOW        (A) : 2.25
     3   REFLECTION IN BIN     (WORKING SET) : 4054
     3   BIN COMPLETENESS (WORKING+TEST) (%) : 94.49
     3   BIN R VALUE           (WORKING SET) : 0.4080
     3   BIN FREE R VALUE SET COUNT          : 233
     3   BIN FREE R VALUE                    : 0.3750
     3
     3  NUMBER OF NON-HYDROGEN ATOMS USED IN REFINEMENT.
     3   PROTEIN ATOMS            : 8917
     3   NUCLEIC ACID ATOMS       : 0
     3   HETEROGEN ATOMS          : 43
     3   SOLVENT ATOMS            : 453
     3
     3  B VALUES.
     3   FROM WILSON PLOT           (A**2) : NULL
     3   MEAN B VALUE      (OVERALL, A**2) : 58.91
     3   OVERALL ANISOTROPIC B VALUE.
     3    B11 (A**2) : 1.08000
     3    B22 (A**2) : -2.65000
     3    B33 (A**2) : 3.60000
     3    B12 (A**2) : -0.24000
     3    B13 (A**2) : -2.71000
     3    B23 (A**2) : -0.69000
     3
     3  ESTIMATED OVERALL COORDINATE ERROR.
     3   ESU BASED ON R VALUE                            (A): 0.337
     3   ESU BASED ON FREE R VALUE                       (A): 0.258
     3   ESU BASED ON MAXIMUM LIKELIHOOD                 (A): 0.332
     3   ESU FOR B VALUES BASED ON MAXIMUM LIKELIHOOD (A**2): 15.463
     3
     3 CORRELATION COEFFICIENTS.
     3   CORRELATION COEFFICIENT FO-FC      : 0.957
     3   CORRELATION COEFFICIENT FO-FC FREE : 0.915
     3
     3  RMS DEVIATIONS FROM IDEAL VALUES        COUNT    RMS    WEIGHT
     3   BOND LENGTHS REFINED ATOMS        (A):  9162 ; 0.006 ; 0.013
     3   BOND LENGTHS OTHERS               (A):  8507 ; 0.001 ; 0.017
     3   BOND ANGLES REFINED ATOMS   (DEGREES): 12491 ; 1.465 ; 1.647
     3   BOND ANGLES OTHERS          (DEGREES): 19580 ; 1.206 ; 1.571
     3   TORSION ANGLES, PERIOD 1    (DEGREES):  1152 ; 7.339 ; 5.000
     3   TORSION ANGLES, PERIOD 2    (DEGREES):   419 ;35.741 ;22.315
     3   TORSION ANGLES, PERIOD 3    (DEGREES):  1443 ;16.244 ;15.000
     3   TORSION ANGLES, PERIOD 4    (DEGREES):    44 ;18.864 ;15.000
     3   CHIRAL-CENTER RESTRAINTS       (A**3):  1252 ; 0.059 ; 0.200
     3   GENERAL PLANES REFINED ATOMS      (A): 10350 ; 0.005 ; 0.020
     3   GENERAL PLANES OTHERS             (A):  2082 ; 0.001 ; 0.020
     3   NON-BONDED CONTACTS REFINED ATOMS (A):  NULL ;  NULL ;  NULL
     3   NON-BONDED CONTACTS OTHERS        (A):  NULL ;  NULL ;  NULL
     3   NON-BONDED TORSION REFINED ATOMS  (A):  NULL ;  NULL ;  NULL
     3   NON-BONDED TORSION OTHERS         (A):  NULL ;  NULL ;  NULL
     3   H-BOND (X...Y) REFINED ATOMS      (A):  NULL ;  NULL ;  NULL
     3   H-BOND (X...Y) OTHERS             (A):  NULL ;  NULL ;  NULL
     3   POTENTIAL METAL-ION REFINED ATOMS (A):  NULL ;  NULL ;  NULL
     3   POTENTIAL METAL-ION OTHERS        (A):  NULL ;  NULL ;  NULL
     3   SYMMETRY VDW REFINED ATOMS        (A):  NULL ;  NULL ;  NULL
     3   SYMMETRY VDW OTHERS               (A):  NULL ;  NULL ;  NULL
     3   SYMMETRY H-BOND REFINED ATOMS     (A):  NULL ;  NULL ;  NULL
     3   SYMMETRY H-BOND OTHERS            (A):  NULL ;  NULL ;  NULL
     3   SYMMETRY METAL-ION REFINED ATOMS  (A):  NULL ;  NULL ;  NULL
     3   SYMMETRY METAL-ION OTHERS         (A):  NULL ;  NULL ;  NULL
     3
     3  ISOTROPIC THERMAL FACTOR RESTRAINTS.     COUNT   RMS    WEIGHT
     3   MAIN-CHAIN BOND REFINED ATOMS  (A**2):  4626 ; 4.566 ; 6.322
     3   MAIN-CHAIN BOND OTHER ATOMS    (A**2):  4625 ; 4.567 ; 6.322
     3   MAIN-CHAIN ANGLE REFINED ATOMS (A**2):  5772 ; 7.266 ; 9.460
     3   MAIN-CHAIN ANGLE OTHER ATOMS   (A**2):  NULL ;  NULL ;  NULL
     3   SIDE-CHAIN BOND REFINED ATOMS  (A**2):  NULL ;  NULL ;  NULL
     3   SIDE-CHAIN BOND OTHER ATOMS    (A**2):  NULL ;  NULL ;  NULL
     3   SIDE-CHAIN ANGLE REFINED ATOMS (A**2):  NULL ;  NULL ;  NULL
     3   SIDE-CHAIN ANGLE OTHER ATOMS   (A**2):  NULL ;  NULL ;  NULL
     3   LONG RANGE B REFINED ATOMS     (A**2):  NULL ;  NULL ;  NULL
     3   LONG RANGE B OTHER ATOMS       (A**2):  NULL ;  NULL ;  NULL
     3
     3 ANISOTROPIC THERMAL FACTOR RESTRAINTS.    COUNT   RMS   WEIGHT
     3   RIGID-BOND RESTRAINTS          (A**2):  NULL ;  NULL ;  NULL
     3   SPHERICITY; FREE ATOMS         (A**2):  NULL ;  NULL ;  NULL
     3   SPHERICITY; BONDED ATOMS       (A**2):  NULL ;  NULL ;  NULL
     3
     3  NCS RESTRAINTS STATISTICS
     3   NUMBER OF DIFFERENT NCS GROUPS : NULL
     3
     3  TLS DETAILS
     3   NUMBER OF TLS GROUPS  : NULL
     3
     3  BULK SOLVENT MODELLING.
     3   METHOD USED : MASK
     3   PARAMETERS FOR MASK CALCULATION
     3   VDW PROBE RADIUS   : 1.20
     3   ION PROBE RADIUS   : 0.80
     3   SHRINKAGE RADIUS   : 0.80
     3
     3  OTHER REFINEMENT REMARKS: HYDROGENS HAVE BEEN ADDED IN THE
     RIDING
     3  POSITIONS U VALUES : REFINED INDIVIDUALLY
     4
     4 5RMM COMPLIES WITH FORMAT V. 3.30, 13-JUL-11
     100
     100 THIS ENTRY HAS BEEN PROCESSED BY RCSB ON 17-SEP-20.
     100 THE DEPOSITION ID IS D_1001403406.
     200
     200 EXPERIMENTAL DETAILS
     200  EXPERIMENT TYPE                : X-RAY DIFFRACTION
     200  DATE OF DATA COLLECTION        : 30-JUL-20
     200  TEMPERATURE           (KELVIN) : 100
     200  PH                             : 7.5
     200  NUMBER OF CRYSTALS USED        : 1
     200
     200  SYNCHROTRON              (Y/N) : Y
     200  RADIATION SOURCE               : DIAMOND
     200  BEAMLINE                       : I04-1
     200  X-RAY GENERATOR MODEL          : NULL
     200  MONOCHROMATIC OR LAUE    (M/L) : NULL
     200  WAVELENGTH OR RANGE        (A) : 0.91259
     200  MONOCHROMATOR                  : NULL
     200  OPTICS                         : NULL
     200
     200  DETECTOR TYPE                  : PIXEL
     200  DETECTOR MANUFACTURER          : DECTRIS PILATUS 6M
     200  INTENSITY-INTEGRATION SOFTWARE : XDS
     200  DATA SCALING SOFTWARE          : AIMLESS 0.7.4
     200
     200  NUMBER OF UNIQUE REFLECTIONS   : 59851
     200  RESOLUTION RANGE HIGH      (A) : 2.200
     200  RESOLUTION RANGE LOW       (A) : 81.540
     200  REJECTION CRITERIA  (SIGMA(I)) : NULL
     200
     200 OVERALL.
     200  COMPLETENESS FOR RANGE     (%) : 97.3
     200  DATA REDUNDANCY                : 3.400
     200  R MERGE                    (I) : 0.12100
     200  R SYM                      (I) : NULL
     200  <I/SIGMA(I)> FOR THE DATA SET  : 6.7000
     200
     200 IN THE HIGHEST RESOLUTION SHELL.
     200  HIGHEST RESOLUTION SHELL, RANGE HIGH (A) : 2.20
     200  HIGHEST RESOLUTION SHELL, RANGE LOW  (A) : 2.26
     200  COMPLETENESS FOR SHELL     (%) : 95.3
     200  DATA REDUNDANCY IN SHELL       : 3.40
     200  R MERGE FOR SHELL          (I) : 1.53600
     200  R SYM FOR SHELL            (I) : NULL
     200  <I/SIGMA(I)> FOR SHELL         : NULL
     200
     200 DIFFRACTION PROTOCOL: SINGLE WAVELENGTH
     200 METHOD USED TO DETERMINE THE STRUCTURE: FOURIER SYNTHESIS
     200 SOFTWARE USED: REFMAC
     200 STARTING MODEL: 6ZSL
     200
     200 REMARK: NULL
     280
     280 CRYSTAL
     280 SOLVENT CONTENT, VS   (%): 47.22
     280 MATTHEWS COEFFICIENT, VM (ANGSTROMS**3/DA): 2.33
     280
     280 CRYSTALLIZATION CONDITIONS: 16 % ETHYLENE GLYCOL, 8 % PEG 8K,
     0.05
     280  M HEPES, 0.05 M MOPS, 0.03 M SODIUM NITRATE, 0,03 M SODIUM
     280  PHOSPHATE, 0.03 M AMMONIUM SULPHATE, PH 7.5, VAPOR DIFFUSION,
     280  SITTING DROP, TEMPERATURE 293K
     290
     290 CRYSTALLOGRAPHIC SYMMETRY
     290 SYMMETRY OPERATORS FOR SPACE GROUP: P 1
     290
     290      SYMOP   SYMMETRY
     290     NNNMMM   OPERATOR
     290       1555   X,Y,Z
     290
     290     WHERE NNN -> OPERATOR NUMBER
     290           MMM -> TRANSLATION VECTOR
     290
     290 CRYSTALLOGRAPHIC SYMMETRY TRANSFORMATIONS
     290 THE FOLLOWING TRANSFORMATIONS OPERATE ON THE ATOM/HETATM
     290 RECORDS IN THIS ENTRY TO PRODUCE CRYSTALLOGRAPHICALLY
     290 RELATED MOLECULES.
     290   SMTRY1   1  1.000000  0.000000  0.000000        0.00000
     290   SMTRY2   1  0.000000  1.000000  0.000000        0.00000
     290   SMTRY3   1  0.000000  0.000000  1.000000        0.00000
     290
     290 REMARK: NULL
     300
     300 BIOMOLECULE: 1, 2
     300 SEE REMARK 350 FOR THE AUTHOR PROVIDED AND/OR PROGRAM
     300 GENERATED ASSEMBLY INFORMATION FOR THE STRUCTURE IN
     300 THIS ENTRY. THE REMARK MAY ALSO PROVIDE INFORMATION ON
     300 BURIED SURFACE AREA.
     350
     350 COORDINATES FOR A COMPLETE MULTIMER REPRESENTING THE KNOWN
     350 BIOLOGICALLY SIGNIFICANT OLIGOMERIZATION STATE OF THE
     350 MOLECULE CAN BE GENERATED BY APPLYING BIOMT TRANSFORMATIONS
     350 GIVEN BELOW.  BOTH NON-CRYSTALLOGRAPHIC AND
     350 CRYSTALLOGRAPHIC OPERATIONS ARE GIVEN.
     350
     350 BIOMOLECULE: 1
     350 AUTHOR DETERMINED BIOLOGICAL UNIT: MONOMERIC
     350 SOFTWARE DETERMINED QUATERNARY STRUCTURE: MONOMERIC
     350 SOFTWARE USED: PISA
     350 APPLY THE FOLLOWING TO CHAINS: A
     350   BIOMT1   1  1.000000  0.000000  0.000000        0.00000
     350   BIOMT2   1  0.000000  1.000000  0.000000        0.00000
     350   BIOMT3   1  0.000000  0.000000  1.000000        0.00000
     350
     350 BIOMOLECULE: 2
     350 AUTHOR DETERMINED BIOLOGICAL UNIT: MONOMERIC
     350 SOFTWARE DETERMINED QUATERNARY STRUCTURE: MONOMERIC
     350 SOFTWARE USED: PISA
     350 APPLY THE FOLLOWING TO CHAINS: B
     350   BIOMT1   1  1.000000  0.000000  0.000000        0.00000
     350   BIOMT2   1  0.000000  1.000000  0.000000        0.00000
     350   BIOMT3   1  0.000000  0.000000  1.000000        0.00000
     465
     465 MISSING RESIDUES
     465 THE FOLLOWING RESIDUES WERE NOT LOCATED IN THE
     465 EXPERIMENT. (M=MODEL NUMBER; RES=RESIDUE NAME; C=CHAIN
     465 IDENTIFIER; SSSEQ=SEQUENCE NUMBER; I=INSERTION CODE.)
     465
     465   M RES C SSSEQI
     465     ASN A    95
     465     THR A    96
     465     CYS A    97
     465     VAL A    98
     465     GLY A    99
     465     SER A   100
     465     ASP A   101
     465     ASN A   102
     465     ARG A   186
     465     VAL A   187
     465     THR A   188
     465     LYS A   189
     465     ASN A   190
     465     SER A   191
     465     LYS A   192
     465     VAL A   193
     465     GLY A   203
     465     ASP A   204
     465     TYR A   205
     465     GLY A   206
     465     PRO A   593
     465     ARG A   594
     465     ARG A   595
     465     ASN A   596
     465     VAL A   597
     465     ALA A   598
     465     THR A   599
     465     LEU A   600
     465     GLN A   601
     465     ALA B     1
     465     ASP B   204
     465     TYR B   205
     465     GLY B   206
     465     ASP B   207
     465     ARG B   337
     465     ALA B   338
     465     ARG B   339
     465     ARG B   594
     465     ARG B   595
     465     ASN B   596
     465     VAL B   597
     465     ALA B   598
     465     THR B   599
     465     LEU B   600
     465     GLN B   601
     470
     470 MISSING ATOM
     470 THE FOLLOWING RESIDUES HAVE MISSING ATOMS (M=MODEL NUMBER;
     470 RES=RESIDUE NAME; C=CHAIN IDENTIFIER; SSEQ=SEQUENCE NUMBER;
     470 I=INSERTION CODE):
     470   M RES CSSEQI  ATOMS
     470     LYS A  28    CG   CD   CE   NZ
     470     MET A  68    CG   SD   CE
     470     LYS A  73    CG   CD   CE   NZ
     470     LYS A  94    CG   CD   CE   NZ
     470     ARG A 155    CG   CD   NE   CZ   NH1  NH2
     470     ARG A 178    CG   CD   NE   CZ   NH1  NH2
     470     LYS A 202    CG   CD   CE   NZ
     470     ARG A 212    CG   CD   NE   CZ   NH1  NH2
     470     LYS A 218    CG   CD   CE   NZ
     470     LEU A 219    CG   CD1  CD2
     470     THR A 228    OG1  CG2
     470     ARG A 248    CG   CD   NE   CZ   NH1  NH2
     470     LYS A 347    CG   CD   CE   NZ
     470     LYS B  28    CG   CD   CE   NZ
     470     LYS B  94    CG   CD   CE   NZ
     470     ASP B 101    CG   OD1  OD2
     470     ASN B 102    CG   OD1  ND2
     470     ARG B 161    CG   CD   NE   CZ   NH1  NH2
     470     ARG B 178    CG   CD   NE   CZ   NH1  NH2
     470     ARG B 186    CG   CD   NE   CZ   NH1  NH2
     470     LYS B 189    CG   CD   CE   NZ
     470     ARG B 212    CG   CD   NE   CZ   NH1  NH2
     470     THR B 214    OG1  CG2
     470     LYS B 218    CG   CD   CE   NZ
     470     ARG B 392    CG   CD   NE   CZ   NH1  NH2
     470     LYS B 524    CG   CD   CE   NZ
     470     GLU B 591    CG   CD   OE1  OE2
     500
     500 GEOMETRY AND STEREOCHEMISTRY
     500 SUBTOPIC: CLOSE CONTACTS IN SAME ASYMMETRIC UNIT
     500
     500 THE FOLLOWING ATOMS ARE IN CLOSE CONTACT.
     500
     500  ATM1  RES C  SSEQI   ATM2  RES C  SSEQI           DISTANCE
     500   O    HOH B  1016     O    HOH B  1034              1.83
     500   O    HOH B   975     O    HOH B   976              1.98
     500   O    HOH A   836     O    HOH A   989              2.02
     500   O    HOH A   812     O    HOH A   991              2.06
     500   O    HOH A   943     O    HOH A   994              2.06
     500   O    HOH A   932     O    HOH A   939              2.07
     500   O    HOH B   992     O    HOH B  1042              2.08
     500   O    HOH B   842     O    HOH B   983              2.09
     500   OE1  GLU A   261     OH   TYR A   324              2.14
     500   OG   SER A   310     O    HOH A   801              2.16
     500   OD2  ASP A   534     O    HOH A   802              2.16
     500   OD1  ASN B   265     O    HOH B   801              2.16
     500   O    HOH B   832     O    HOH B   902              2.17
     500   O    ALA A   123     O    HOH A   803              2.17
     500
     500 REMARK: NULL
     500
     500 GEOMETRY AND STEREOCHEMISTRY
     500 SUBTOPIC: TORSION ANGLES
     500
     500 TORSION ANGLES OUTSIDE THE EXPECTED RAMACHANDRAN REGIONS:
     500 (M=MODEL NUMBER; RES=RESIDUE NAME; C=CHAIN IDENTIFIER;
     500 SSEQ=SEQUENCE NUMBER; I=INSERTION CODE).
     500
     500 STANDARD TABLE:
     500 FORMAT:(10X,I3,1X,A3,1X,A1,I4,A1,4X,F7.2,3X,F7.2)
     500
     500 EXPECTED VALUES: GJ KLEYWEGT AND TA JONES (1996). PHI/PSI-
     500 CHOLOGY: RAMACHANDRAN REVISITED. STRUCTURE 4, 1395 - 1400
     500
     500  M RES CSSEQI        PSI       PHI
     500    LEU A   7      -48.85   -153.73
     500    ASN A   9        2.93     81.57
     500    LEU A  14       96.34    -68.57
     500    ARG A  22       62.67     13.95
     500    SER A  44     -104.76   -147.29
     500    ALA A 123        3.00    -68.12
     500    CYS A 126     -166.74   -100.90
     500    SER A 159     -152.58   -145.31
     500    ILE A 195       42.25    -85.97
     500    ALA A 208      118.90    -22.59
     500    VAL A 241      159.87    -49.25
     500    ILE A 249       98.72    -60.02
     500    MET A 274       34.35    -91.93
     500    PRO A 283      165.88    -43.32
     500    TYR A 299       75.54   -115.17
     500    ARG A 339      -76.35    -87.08
     500    GLN A 404     -168.34   -101.19
     500    GLU A 420        1.84    -66.44
     500    ASP A 458       44.96     38.55
     500    ALA A 469       28.10     49.36
     500    VAL A 484     -107.51     67.45
     500    THR A 549      -59.93     82.31
     500    VAL A 570      -60.36   -121.68
     500    ASN B   9       -4.50     67.52
     500    VAL B  45      -43.25    -26.58
     500    SER B  80      103.57   -173.22
     500    ASN B  86       31.26     78.35
     500    LEU B  92      151.04    -41.00
     500    SER B 159     -153.09   -167.47
     500    ARG B 161       22.01     46.78
     500    SER B 191     -141.00   -140.43
     500    ARG B 212       67.35   -108.05
     500    THR B 215      172.83    150.94
     500    LYS B 218       71.73   -106.71
     500    THR B 231      140.10    -35.08
     500    SER B 236      -54.12   -128.31
     500    PRO B 283      170.44    -52.69
     500    TYR B 299       69.80   -116.61
     500    CYS B 342      -92.21   -109.24
     500    CYS B 358      134.42   -175.20
     500    GLN B 404     -167.70   -105.25
     500    THR B 431      -65.81    -92.69
     500    VAL B 456       -0.51   -143.01
     500    ASP B 458       46.83     34.26
     500    ASP B 483     -167.23   -102.26
     500    SER B 485       30.08   -146.33
     500    THR B 549      -57.06     76.22
     500    VAL B 570      -61.18   -130.00
     500
     500 REMARK: NULL
     525
     525 SOLVENT
     525
     525 THE SOLVENT MOLECULES HAVE CHAIN IDENTIFIERS THAT
     525 INDICATE THE POLYMER CHAIN WITH WHICH THEY ARE MOST
     525 CLOSELY ASSOCIATED. THE REMARK LISTS ALL THE SOLVENT
     525 MOLECULES WHICH ARE MORE THAN 5A AWAY FROM THE
     525 NEAREST POLYMER CHAIN (M = MODEL NUMBER;
     525 RES=RESIDUE NAME; C=CHAIN IDENTIFIER; SSEQ=SEQUENCE
     525 NUMBER; I=INSERTION CODE):
     525
     525  M RES CSSEQI
     525    HOH B1051        DISTANCE =  5.93 ANGSTROMS
     620
     620 METAL COORDINATION
     620 (M=MODEL NUMBER; RES=RESIDUE NAME; C=CHAIN IDENTIFIER;
     620 SSEQ=SEQUENCE NUMBER; I=INSERTION CODE):
     620
     620 COORDINATION ANGLES FOR:  M RES CSSEQI METAL
     620                              ZN A 703  ZN
     620 N RES CSSEQI ATOM
     620 1 CYS A   5   SG
     620 2 CYS A   8   SG   87.4
     620 3 CYS A  26   SG  105.7  93.7
     620 4 CYS A  29   SG  143.4 128.7  81.0
     620 N                    1     2     3
     620
     620 COORDINATION ANGLES FOR:  M RES CSSEQI METAL
     620                              ZN A 702  ZN
     620 N RES CSSEQI ATOM
     620 1 CYS A  16   SG
     620 2 CYS A  19   SG  107.4
     620 3 HIS A  33   NE2 109.2 105.8
     620 4 HIS A  39   ND1 103.2 115.8 115.0
     620 N                    1     2     3
     620
     620 COORDINATION ANGLES FOR:  M RES CSSEQI METAL
     620                              ZN A 701  ZN
     620 N RES CSSEQI ATOM
     620 1 CYS A  50   SG
     620 2 CYS A  55   SG  105.9
     620 3 CYS A  72   SG  122.1 114.2
     620 4 HIS A  75   ND1 107.1 100.8 104.4
     620 N                    1     2     3
     620
     620 COORDINATION ANGLES FOR:  M RES CSSEQI METAL
     620                              ZN B 703  ZN
     620 N RES CSSEQI ATOM
     620 1 CYS B   5   SG
     620 2 CYS B  26   SG  109.5
     620 3 CYS B  29   SG  105.3 101.2
     620 N                    1     2
     620
     620 COORDINATION ANGLES FOR:  M RES CSSEQI METAL
     620                              ZN B 702  ZN
     620 N RES CSSEQI ATOM
     620 1 CYS B  16   SG
     620 2 CYS B  19   SG  109.8
     620 3 HIS B  33   NE2 114.7 106.0
     620 4 HIS B  39   ND1 110.8 101.3 113.2
     620 N                    1     2     3
     620
     620 COORDINATION ANGLES FOR:  M RES CSSEQI METAL
     620                              ZN B 704  ZN
     620 N RES CSSEQI ATOM
     620 1 CYS B  50   SG
     620 2 CYS B  55   SG  119.7
     620 3 CYS B  72   SG  112.0 100.1
     620 4 HIS B  75   ND1 123.4  98.0  99.7
     620 N                    1     2     3

$$$$
